parallel/peak_load/0pc/TNB_DUMA_EXP_VOLTAGES.CSV
Bus, BasekV, Node1, Magnitude1, Angle1, pu1, Node2, Magnitude2, Angle2, pu2, Node3, Magnitude3, Angle3, pu3
"PPU_DUMA_33KV", 33, 1,    18892.7,   -0.5,   0.99161, 2,    18892.7, -120.5,   0.99161, 3,    18892.7,  119.5,   0.99161
"PPU_DUMA_11KV", 11, 1,    6164.57,  -32.6,   0.97067, 2,    6164.57, -152.6,   0.97067, 3,    6164.57,   87.4,   0.97067
"RPPLNGI2", 11, 1,    6126.61,  -32.7,   0.96469, 2,    6126.61, -152.7,   0.96469, 3,    6126.61,   87.3,   0.96469
"PDTJLNMASJID", 11, 1,     6098.1,  -32.8,    0.9602, 2,     6098.1, -152.8,    0.9602, 3,     6098.1,   87.2,    0.9602
"BELLA", 11, 1,    6079.07,  -32.8,   0.95721, 2,    6079.07, -152.8,   0.95721, 3,    6079.07,   87.2,   0.95721
"PSTPDGN", 11, 1,    6069.55,  -32.8,   0.95571, 2,    6069.55, -152.8,   0.95571, 3,    6069.55,   87.2,   0.95571
"PAMDRA", 11, 1,    6162.79,  -32.6,   0.97039, 2,    6162.79, -152.6,   0.97039, 3,    6162.79,   87.4,   0.97039
"DUMA4", 11, 1,    6156.39,  -32.6,   0.96938, 2,    6156.39, -152.6,   0.96938, 3,    6156.39,   87.4,   0.96938
"PLSDRA", 11, 1,    6139.89,  -32.6,   0.96678, 2,    6139.89, -152.6,   0.96678, 3,    6139.89,   87.4,   0.96678
"SSU_UPTWRES_IR1", 11, 1,    6134.23,  -32.6,   0.96589, 2,    6134.23, -152.6,   0.96589, 3,    6134.23,   87.4,   0.96589
"ATRIA_1", 11, 1,    6133.21,  -32.7,   0.96573, 2,    6133.21, -152.7,   0.96573, 3,    6133.21,   87.3,   0.96573
"HAWKER", 11, 1,    6126.79,  -32.7,   0.96472, 2,    6126.79, -152.7,   0.96472, 3,    6126.79,   87.3,   0.96472
"PRMTE", 11, 1,    6109.19,  -32.8,   0.96195, 2,    6109.19, -152.8,   0.96195, 3,    6109.19,   87.2,   0.96195
"PRMTA", 11, 1,    6101.11,  -32.8,   0.96068, 2,    6101.11, -152.8,   0.96068, 3,    6101.11,   87.2,   0.96068
"PMONTB", 11, 1,    6097.51,  -32.8,   0.96011, 2,    6097.51, -152.8,   0.96011, 3,    6097.51,   87.2,   0.96011
"DUMA7", 11, 1,    6154.37,  -32.6,   0.96906, 2,    6154.37, -152.6,   0.96906, 3,    6154.37,   87.4,   0.96906
"HAUS", 11, 1,    6142.28,  -32.6,   0.96716, 2,    6142.28, -152.6,   0.96716, 3,    6142.28,   87.4,   0.96716
"DUMA6", 11, 1,    6111.56,  -32.6,   0.96232, 2,    6111.56, -152.6,   0.96232, 3,    6111.56,   87.4,   0.96232
"DUMA13", 11, 1,    6088.27,  -32.5,   0.95865, 2,    6088.27, -152.5,   0.95865, 3,    6088.27,   87.5,   0.95865
"SSU_DUMA5_IM2", 11, 1,    6082.14,  -32.6,   0.95769, 2,    6082.14, -152.6,   0.95769, 3,    6082.14,   87.4,   0.95769
"PLNGI_B", 11, 1,    6158.34,  -32.6,   0.96969, 2,    6158.34, -152.6,   0.96969, 3,    6158.34,   87.4,   0.96969
"PLNGI_D", 11, 1,    6157.69,  -32.6,   0.96958, 2,    6157.69, -152.6,   0.96958, 3,    6157.69,   87.4,   0.96958
"PDTLITRAK", 11, 1,    6111.94,  -32.7,   0.96238, 2,    6111.94, -152.7,   0.96238, 3,    6111.94,   87.3,   0.96238
"DUMA12", 11, 1,    6090.67,  -32.8,   0.95903, 2,    6090.67, -152.8,   0.95903, 3,    6090.67,   87.2,   0.95903
"TMNGH4", 11, 1,    6074.15,  -32.8,   0.95643, 2,    6074.15, -152.8,   0.95643, 3,    6074.15,   87.2,   0.95643
"SSU_TMEGAH3_IR1", 11, 1,    6067.32,  -32.8,   0.95536, 2,    6067.32, -152.8,   0.95536, 3,    6067.32,   87.2,   0.95536
"TMNGH2", 11, 1,    6063.41,  -32.8,   0.95474, 2,    6063.41, -152.8,   0.95474, 3,    6063.41,   87.2,   0.95474
"SPRK9", 11, 1,    6066.74,  -32.8,   0.95526, 2,    6066.74, -152.8,   0.95526, 3,    6066.74,   87.2,   0.95526
"BOMBA", 11, 1,    6062.31,  -32.8,   0.95457, 2,    6062.31, -152.8,   0.95457, 3,    6062.31,   87.2,   0.95457
"SPRK8", 11, 1,    6051.24,  -32.8,   0.95282, 2,    6051.24, -152.8,   0.95282, 3,    6051.24,   87.2,   0.95282
"SSU_UPTWRES_IM2", 11, 1,    6150.88,  -32.6,   0.96851, 2,    6150.88, -152.6,   0.96851, 3,    6150.88,   87.4,   0.96851
"MAYBANK", 11, 1,     6142.8,  -32.6,   0.96724, 2,     6142.8, -152.6,   0.96724, 3,     6142.8,   87.4,   0.96724
"DUMA8", 11, 1,    6141.53,  -32.6,   0.96704, 2,    6141.53, -152.6,   0.96704, 3,    6141.53,   87.4,   0.96704
"SSU_DSARCNTR_IR1", 11, 1,    6162.68,  -32.6,   0.97037, 2,    6162.68, -152.6,   0.97037, 3,    6162.68,   87.4,   0.97037
"DUMA9", 11, 1,    6112.72,  -32.7,    0.9625, 2,    6112.72, -152.7,    0.9625, 3,    6112.72,   87.3,    0.9625
"DUMA1", 11, 1,    6091.66,  -32.8,   0.95919, 2,    6091.66, -152.8,   0.95919, 3,    6091.66,   87.2,   0.95919
"ELITE", 11, 1,    6084.14,  -32.8,     0.958, 2,    6084.14, -152.8,     0.958, 3,    6084.14,   87.2,     0.958
"DUMA10", 11, 1,    6142.49,  -32.6,   0.96719, 2,    6142.49, -152.6,   0.96719, 3,    6142.49,   87.4,   0.96719
"BALAIPOLIS", 11, 1,    6142.26,  -32.6,   0.96715, 2,    6142.26, -152.6,   0.96715, 3,    6142.26,   87.4,   0.96715
"PPU_DUMA_VCB1", 33, 1,          0,    0.0,         0, 2,          0,    0.0,         0, 3,          0,    0.0,         0
